!wB97X-D3 RIJCOSX def2-SVPD def2/J TightSCF CPCM(Water)
* xyz 0 1
C         -4.99100        1.96800        2.18000
O         -5.06400        1.07900        3.01200
N         -6.07000        2.34200        1.45100
C         -7.35500        1.67300        1.69600
C         -7.27200        0.15600        1.55100
O         -7.54200       -0.50100        2.54400
C         -8.58000        2.23900        0.91700
C         -9.05400        3.62500        1.44000
C         -7.97200        4.66700        1.33200
F         -7.89100        5.32200        0.26000
O         -7.19600        4.83900        2.31300
H         -6.00400        3.09700        0.79200
H         -7.59300        1.86000        2.76400
H         -8.35300        2.32300       -0.15800
H         -9.42800        1.54200        1.03400
H         -9.91600        3.96200        0.83900
H         -9.38500        3.56000        2.49000
N         -6.92900       -0.49900        0.41300
H         -4.08861        2.44516        2.02823
H         -6.70723        0.00988       -0.40008
H         -6.90194       -1.48305        0.40052
*
%MaxCore 64000
%scf
  Convergence VeryTight
  MaxIter 400
end
%pal nprocs 4 
end
