!TPSS D3BJ RIJCOSX def2-SVPD def2/J TightSCF 
*xyz 0 1
C          4.99986       -1.59613       -5.92488
C          3.76678       -2.26611       -6.51175
C          2.49670       -1.84416       -5.73570
H          1.62642       -2.21743       -6.30895
H          2.48182       -2.45607       -4.79341
F          2.45973       -0.50920       -5.50576
H          3.88619       -3.35708       -6.53360
H          3.68560       -1.92217       -7.54713
H          5.86637       -1.89999       -6.47418
H          5.10830       -1.88372       -4.89997
H          4.89230       -0.53341       -5.98765
*

%MaxCore 64000

%pal nprocs 4
end  

%scf
  MaxIter 150
end

