!wB97X-D3 RIJCOSX def2-SVPD def2/J TightSCF CPCM(Water)
* xyz 0 1
C         -1.11600        3.62600        5.13500
O         -2.06600        3.92400        5.89200
N         -1.10700        2.39300        4.56500
C         -2.21900        1.44900        4.59700
C         -1.88400        0.00100        4.44000
O         -2.28500       -0.84500        5.27400
C         -3.26900        1.89400        3.53500
C         -2.71500        1.94900        2.08000
C         -3.70200        2.64300        1.11500
N         -2.96300        3.24000        0.04500
C         -3.44800        4.21300       -0.73800
N         -4.67600        4.71000       -0.66000
N         -2.63900        4.70900       -1.65200
O         -1.29800       -0.44500        3.42400
H         -0.30400        2.18200        4.06000
H         -2.70900        1.50900        5.57900
H         -4.13300        1.22100        3.55400
H         -3.64800        2.87600        3.83500
H         -1.75700        2.48100        2.07200
H         -2.51800        0.93600        1.70900
H         -4.43400        1.92300        0.72600
H         -4.26600        3.41200        1.65600
H         -2.05800        2.93000       -0.11500
H         -5.31200        4.40300       -0.00700
H         -4.95700        5.31000       -1.35600
H         -1.77400        4.30600       -1.78700
H         -2.91600        5.48000       -2.15200
H         -0.35752        4.30036        4.94800
*
%MaxCore 64000
%scf
  Convergence VeryTight
  MaxIter 300
end
%pal nprocs 8 
end
