!wB97X-D3 RIJCOSX def2-SVPD def2/J TightSCF CPCM(Water)
* xyz 3 1
N          2.92600       -5.87900       -6.71800
C          1.87300       -6.19600       -5.71500
C          0.67400       -6.77700       -6.51800
C         -0.48500       -7.38200       -5.66700
C         -0.09900       -8.64600       -4.85800
N         -1.28900       -9.16300       -4.26400
C         -1.68100       -9.12800       -2.98600
N         -1.04400       -8.60200       -1.94600
N         -2.85200       -9.69500       -2.78300
C          1.53800       -4.97700       -4.91700
O          1.24100       -3.93800       -5.55900
H          2.65300       -5.05300       -7.26400
H          3.81300       -5.65700       -6.25300
H          3.08800       -6.63700       -7.37500
H          2.26500       -6.96000       -5.03500
H          0.28000       -5.97100       -7.15100
H          1.04600       -7.55500       -7.19600
H         -0.89500       -6.63600       -4.97700
H         -1.30400       -7.65500       -6.34500
H          0.33600       -9.40700       -5.51500
H          0.64400       -8.41600       -4.09500
H         -1.94800       -9.59000       -4.82400
H         -0.18300       -8.19300       -2.04600
H         -1.41600       -8.68500       -1.06300
H         -3.27800      -10.09200       -3.54600
H         -3.25500       -9.68800       -1.91000
N          1.61300       -4.98100       -3.56100
C          1.54600       -3.85400       -2.67500
C          2.57600       -4.00200       -1.58200
O          2.16800       -4.06100       -0.39200
C          0.04700       -3.60900       -2.27600
C         -0.85300       -4.82200       -1.87400
C         -0.78200       -5.27100       -0.39100
N         -1.52400       -4.37000        0.44200
C         -1.07200       -3.51000        1.36000
C          0.20800       -3.20800        1.54900
N         -2.02800       -2.89100        2.04800
H          1.70600       -5.83000       -3.11700
H          1.85900       -2.94900       -3.20200
H          0.00100       -2.86200       -1.47700
H         -0.42000       -3.14200       -3.15400
H         -1.90000       -4.55400       -2.06900
H         -0.63000       -5.67400       -2.51900
H         -1.27300       -6.24700       -0.29200
H          0.24900       -5.42100       -0.06400
H         -2.48400       -4.35500        0.35500
H          0.84900       -3.52800        0.90500
H          0.48100       -2.72000        2.32700
H         -2.93100       -3.19700        1.89100
H         -1.82800       -2.14000        2.61300
N          3.93300       -4.04600       -1.82100
C          4.93900       -4.19400       -0.79200
C          4.69300       -3.60900        0.56500
O          4.79000       -2.35800        0.71600
C          6.18300       -3.57400       -1.47400
C          6.03600       -3.99800       -2.94000
C          4.51200       -3.99100       -3.13900
H          5.12200       -5.26500       -0.67400
H          6.14500       -2.47900       -1.41100
H          7.12500       -3.92300       -1.04100
H          6.55300       -3.30900       -3.61700
H          6.43300       -5.01000       -3.09800
H          4.20500       -3.08100       -3.67000
H          4.22000       -4.86600       -3.72700
N          4.35900       -4.33600        1.67900
C          4.38800       -3.73200        2.98800
C          5.76100       -3.25700        3.33300
O          6.75600       -3.98800        3.14600
C          3.81900       -4.81200        3.92300
C          3.10700       -5.79600        2.99000
C          3.97500       -5.72300        1.72400
O          1.79100       -5.33000        2.69000
H          3.69700       -2.88100        2.99200
H          3.13300       -4.39400        4.66600
H          4.63700       -5.32700        4.43000
H          3.06300       -6.80000        3.43600
H          3.39700       -6.06900        0.85800
H          4.86800       -6.34800        1.83900
H          1.88800       -4.71600        1.91900
N          5.92900       -1.99900        3.77500
C          7.12000       -1.19500        3.71400
C          6.68300        0.17500        3.39200
O          7.12500        1.11000        4.09100
H          5.12500       -1.58100        4.09400
H          7.63200       -1.21700        4.67900
H          7.82600       -1.51600        2.94600
N          5.73200        0.32000        2.44100
C          4.72900        1.33700        2.34100
C          4.01200        1.17600        1.05100
O          4.63000        1.27700       -0.03500
C          4.95500        2.81600        2.81700
C          5.58900        3.86600        1.98500
C          5.47500        5.21100        2.35500
C          6.04500        6.08300        1.44400
C          6.61800        5.39400        0.38600
S          6.52000        3.66500        0.52700
H          5.57000       -0.46800        1.88900
H          4.03200        0.98100        3.09900
H          3.96000        3.20500        3.03100
H          5.46300        2.81800        3.78000
H          4.99600        5.52900        3.20200
H          6.03400        7.10400        1.53900
H          7.05900        5.86800       -0.40200
N          2.67800        0.93700        1.07500
C          1.77800        1.00500       -0.04800
C          1.01000        2.28600        0.05700
O         -0.21200        2.40500       -0.20200
C          0.91800       -0.28100       -0.00800
O          0.05600       -0.27700       -1.14200
H          2.28100        0.84500        1.95400
H          2.30900        1.03400       -1.00600
H          1.55700       -1.17200       -0.04500
H          0.32900       -0.32300        0.91900
H         -0.35300        0.61200       -1.07100
N          1.69500        3.36700        0.48700
C          1.16100        4.55500        1.12200
C          0.92900        4.29100        2.59500
O          1.49300        3.29100        3.09800
C          2.21900        5.66200        0.74300
C          1.97000        6.23900       -0.68100
C          2.26100        6.93000        1.63300
C          1.28200        7.50500       -0.41700
C          0.54700        8.30400       -1.31100
C          0.02300        9.53700       -0.86200
C          0.23300        9.95500        0.46900
C          0.97600        9.14900        1.36000
C          1.47800        7.91700        0.89800
H          2.66400        3.26700        0.49200
H          0.18400        4.80900        0.69400
H          3.22200        5.21400        0.77500
H          1.36900        5.57500       -1.30400
H          2.91800        6.45000       -1.19400
H          3.27700        7.32200        1.72900
H          1.87400        6.74900        2.62700
H          0.42300        8.00400       -2.28000
H         -0.49500       10.14300       -1.50700
H         -0.14900       10.85000        0.78300
H          1.15500        9.45200        2.32200
N          0.06800        4.95200        3.44300
C         -0.03600        4.62200        4.85200
C         -1.11600        3.62600        5.13500
O         -2.06600        3.92400        5.89200
C         -0.19200        6.03700        5.47400
C         -0.77600        6.95300        4.37100
C         -0.79200        6.05600        3.09800
C         -2.15200        7.60900        4.72300
C         -2.84900        8.06000        3.40700
C         -3.18000        6.85200        2.47500
C         -2.22900        5.63700        2.68600
H          0.88200        4.17000        5.24400
H          0.79900        6.40100        5.75600
H         -0.80300        6.01000        6.37800
H         -0.06500        7.77200        4.20400
H         -0.41000        6.63000        2.25700
H         -2.00000        8.46600        5.39800
H         -2.80300        6.89100        5.24100
H         -2.19900        8.77200        2.88100
H         -3.77400        8.59600        3.63900
H         -3.15000        7.17000        1.42700
H         -4.21200        6.52000        2.66100
H         -2.66000        5.00900        3.46400
H         -2.17400        5.05000        1.77500
N         -1.10700        2.39300        4.56500
C         -2.21900        1.44900        4.59700
C         -1.88400        0.00100        4.44000
O         -2.28500       -0.84500        5.27400
C         -3.26900        1.89400        3.53500
C         -2.71500        1.94900        2.08000
C         -3.70200        2.64300        1.11500
N         -2.96300        3.24000        0.04500
C         -3.44800        4.21300       -0.73800
N         -4.67600        4.71000       -0.66000
N         -2.63900        4.70900       -1.65200
F         -1.29800       -0.44500        3.42400
H         -0.30400        2.18200        4.06000
H         -2.70900        1.50900        5.57900
H         -4.13300        1.22100        3.55400
H         -3.64800        2.87600        3.83500
H         -1.75700        2.48100        2.07200
H         -2.51800        0.93600        1.70900
H         -4.43400        1.92300        0.72600
H         -4.26600        3.41200        1.65600
H         -2.05800        2.93000       -0.11500
H         -5.31200        4.40300       -0.00700
H         -4.95700        5.31000       -1.35600
H         -1.77400        4.30600       -1.78700
H         -2.91600        5.48000       -2.15200
*
%MaxCore 64000
%scf
  Convergence VeryTight
  MaxIter 300
end
%pal nprocs 8 
end
