!wB97X-D3 RIJCOSX def2-TZVPD def2/J TightSCF 
*xyz 0 1
C          1.36401        0.46874       -2.81376
C          0.42884        0.32140       -1.65531
C          0.96805        1.63064       -3.71575
C         -0.50835        1.72268       -4.12430
H          0.74858       -0.40054       -1.00134
H         -0.46105        0.02333       -2.07773
H          0.31026        1.20137       -1.13495
H          1.29485       -0.46874       -3.36468
H          2.37622        0.59740       -2.43149
H          1.57869        1.52065       -4.61273
H          1.26665        2.57599       -3.25045
H         -0.65192        2.57663       -4.75283
H         -1.11549        1.81835       -3.24844
H         -0.78702        0.83723       -4.65648
*
%MaxCore 64000

%pal nprocs 18
end  

%scf
  MaxIter 150
end

