!wB97X-D3 RIJCOSX def2-SVPD def2/J TightSCF CPCM(Water)
* xyz 0 1
C         -4.59200        8.36400        0.37100 
H         -4.42564        7.55693       -0.31154 
H         -3.85268        8.33554        1.14398 
H         -4.52419        9.29426       -0.15332 
C         -6.01000        8.22600        1.00300 
C         -7.13600        8.26100       -0.06800 
N         -8.43900        8.07000        0.57500 
C         -9.09500        9.01200        1.21400 
N         -8.69500       10.25200        1.36600 
C        -10.23900        8.63800        1.72700 
H         -6.08000        7.29700        1.59000 
H         -6.17500        9.05900        1.70400 
H         -7.11400        9.18600       -0.66400 
H         -6.95400        7.44200       -0.78200 
H         -8.87200        7.13500        0.50700 
H         -7.80900       10.58900        0.97300 
H         -9.27300       10.92700        1.88900 
H        -10.59900        7.67600        1.63600 
H        -10.80200        9.33100        2.24000 
*
%MaxCore 64000
%scf
  Convergence VeryTight
  MaxIter 400
end
%pal nprocs 4 
end
