!wB97X-D3 RIJCOSX def2-SVPD def2/J TightSCF CPCM(Water)
* xyz 8 1
N          6.07100       -8.81500        5.15600
C          6.26600       -7.88000        4.03900
C          5.45100       -8.36500        2.86600
O          5.56200       -9.53900        2.55000
H          6.33200       -9.73100        4.82600
H          6.57400       -8.65400        6.01400
H          5.08800       -8.80700        5.38100
H          5.97800       -6.86700        4.35900
H          7.32700       -7.86500        3.74500
N          4.63800       -7.49700        2.21400
C          3.81500       -7.92900        1.08300
C          3.90100       -6.83700        0.03800
O          3.26000       -5.81100        0.21300
C          2.35700       -8.18700        1.56200
C          1.41500       -8.46000        0.35500
C          2.32100       -9.39300        2.54400
H          4.55700       -6.54100        2.50000
H          4.18600       -8.86900        0.64600
H          1.99900       -7.28500        2.08900
H          1.77200       -9.32900       -0.21900
H          0.39200       -8.66900        0.70300
H          1.36900       -7.59200       -0.31900
H          2.72600      -10.29500        2.06100
H          2.91600       -9.18200        3.44400
H          1.29400       -9.61500        2.86600
N          4.70500       -7.04000       -1.03800
C          4.84000       -6.02300       -2.07300
C          3.84600       -6.32500       -3.16400
O          3.55000       -7.49300       -3.36300
C          6.29200       -5.99600       -2.64400
C          7.37800       -6.04800       -1.51900
C          6.49100       -4.77900       -3.59400
C          7.06700       -5.16400       -0.28200
H          5.21800       -7.88900       -1.17400
H          4.62200       -5.03300       -1.64800
H          6.43700       -6.90000       -3.26200
H          7.50700       -7.08200       -1.15500
H          8.34800       -5.74100       -1.94300
H          6.25400       -3.84000       -3.07500
H          7.52900       -4.72900       -3.95800
H          5.84200       -4.86200       -4.47900
H          6.71800       -4.17600       -0.59900
H          6.29000       -5.61000        0.35400
H          7.97200       -5.04200        0.33500
N          3.33500       -5.29200       -3.87800
C          2.44700       -5.52300       -5.01500
C          2.88300       -4.60700       -6.14300
O          3.25700       -3.47600       -5.87000
C          0.94400       -5.37500       -4.62700
C          0.65800       -3.96400       -4.03000
C          0.53500       -6.51400       -3.64600
C         -0.84000       -3.69100       -3.73100
H          3.56400       -4.34300       -3.65700
H          2.59500       -6.55100       -5.38400
H          0.34600       -5.49700       -5.54800
H          1.22900       -3.82100       -3.09700
H          0.99100       -3.21300       -4.76100
H          0.81100       -7.49800       -4.05600
H          1.03700       -6.38900       -2.67400
H         -0.55200       -6.53000       -3.47900
H         -1.44800       -3.85300       -4.63500
H         -1.21300       -4.34100       -2.92600
H         -0.97500       -2.64900       -3.40300
N          2.87200       -5.09200       -7.40700
C          3.47900       -4.34700       -8.51400
C          2.37800       -3.66300       -9.28800
O          2.07100       -4.10500      -10.38400
C          4.30000       -5.34700       -9.38100
C          5.30900       -6.05200       -8.50000
O          4.90000       -6.87100       -7.69200
N          6.62600       -5.76600       -8.61100
H          2.50100       -5.99900       -7.61300
H          4.19400       -3.58500       -8.15700
H          3.64300       -6.11000       -9.82800
H          4.78800       -4.80700      -10.20900
H          6.96500       -5.11200       -9.28500
H          7.28400       -6.22200       -8.00900
N          1.77200       -2.58800       -8.72600
C          0.64500       -1.92100       -9.38700
C          0.99300       -0.47300       -9.65300
O          1.62700        0.12000       -8.79600
C         -0.61400       -2.01700       -8.47600
C         -1.84600       -1.33200       -9.13200
C         -0.93100       -3.50400       -8.15200
H          2.05900       -2.23300       -7.83200
H          0.40100       -2.40700      -10.34500
H         -0.39600       -1.49900       -7.52600
H         -2.07800       -1.80100      -10.10100
H         -2.72700       -1.42700       -8.47800
H         -1.66000       -0.25900       -9.29500
H         -0.08200       -3.98400       -7.64200
H         -1.80800       -3.57400       -7.49000
H         -1.14400       -4.06200       -9.07600
N          0.59100        0.12100      -10.80700
C          0.87900        1.53500      -11.04300
C          0.09700        2.30900      -10.00000
O         -1.07100        2.55900      -10.24400
C          0.47900        1.97700      -12.48400
C          0.74300        3.49100      -12.71600
C          0.29100        3.99200      -14.11700
C          1.05500        3.35500      -15.31200
N          2.51800        3.53700      -15.22300
H          0.06200       -0.38200      -11.49400
H          1.96200        1.70700      -10.93900
H          1.06600        1.37600      -13.19400
H         -0.58800        1.76200      -12.65700
H          0.18000        4.07500      -11.97000
H          1.81100        3.70900      -12.56300
H         -0.78800        3.80100      -14.24100
H          0.44400        5.08400      -14.15900
H          0.82300        2.28300      -15.40100
H          0.71900        3.83800      -16.24500
H          2.84700        4.56400      -15.13800
H          2.78200        3.09500      -14.35700
H          3.07300        3.02400      -15.99600
N          0.69900        2.70100       -8.85400
C         -0.04100        3.50900       -7.88400
C          0.06400        4.93600       -8.32100
O          0.94800        5.22600       -9.11600
C          0.51900        3.46600       -6.43700
S          2.02300        4.48000       -6.16000
H          1.67900        2.54600       -8.69400
H         -1.07900        3.14900       -7.84600
H         -0.22300        3.83100       -5.70600
H          0.75700        2.40600       -6.23500
N         -0.78800        5.83000       -7.76400
C         -0.56000        7.26000       -7.93000
C         -0.49800        7.94200       -6.58700
O          0.42100        8.72400       -6.37800
C         -1.63700        7.86700       -8.86400
C         -1.22900        9.29000       -9.34200
C         -2.23500        9.87300      -10.37300
C         -1.71300       11.17600      -11.03900
N         -1.50600       12.26000      -10.05600
H         -1.55500        5.48100       -7.23300
H          0.42000        7.42500       -8.41200
H         -1.73100        7.20900       -9.74400
H         -2.61300        7.90100       -8.35400
H         -1.16200        9.95100       -8.46300
H         -0.23700        9.24300       -9.82000
H         -2.40700        9.13000      -11.17000
H         -3.19800       10.07200       -9.87400
H         -0.77200       10.97600      -11.57900
H         -2.46100       11.50900      -11.77800
H         -0.83300       11.92500       -9.38500
H         -1.12400       13.17400      -10.48900
H         -2.41500       12.52100       -9.52900
N         -1.46500        7.67100       -5.66500
C         -1.46300        8.27400       -4.33100
C         -1.34600        7.22200       -3.21400
O         -1.99800        6.18000       -3.19600
C         -2.66000        9.27500       -4.16700
C         -4.00500        8.67100       -4.67200
C         -2.36200       10.62800       -4.90200
C         -5.27900        9.32600       -4.06600
H         -2.21700        7.06400       -5.87600
H         -0.55600        8.89900       -4.23700
H         -2.74700        9.50700       -3.08600
H         -4.06700        8.72700       -5.77500
H         -4.02200        7.61300       -4.40100
H         -2.19700       10.48700       -5.98000
H         -3.19100       11.33700       -4.77700
H         -1.46600       11.10800       -4.48400
H         -5.30500        9.22300       -2.97200
H         -5.33500       10.39300       -4.31800
H         -6.17600        8.83500       -4.47200
N         -0.46900        7.50400       -2.22400
C         -0.26000        6.56100       -1.12700
C         -1.57500        6.32600       -0.43200
O         -1.75300        5.23200        0.08000
C          0.80300        7.06400       -0.11200
O          0.46500        8.36000        0.41000
H          0.05500        8.35800       -2.17400
H          0.09700        5.60900       -1.55400
H          0.93000        6.33800        0.70900
H          1.77000        7.16800       -0.62900
H         -0.34100        8.35700        0.91500
N         -2.52300        7.28900       -0.40500
C         -3.82700        7.01700        0.20700
C         -4.61300        5.97800       -0.57500
O         -5.28800        5.18100        0.05800
C         -4.59200        8.36400        0.37100
C         -6.01000        8.22600        1.00300
C         -7.13600        8.26100       -0.06800
C         -8.43900        8.07000        0.57500
C         -9.09500        9.01200        1.21400
N         -8.69500       10.25200        1.36600
N        -10.23900        8.63800        1.72700
H         -2.35700        8.18800       -0.81500
H         -3.66300        6.62700        1.22900
H         -3.97000        9.00100        1.02500
H         -4.66600        8.87500       -0.60100
H         -6.08000        7.29700        1.59000
H         -6.17500        9.05900        1.70400
H         -7.11400        9.18600       -0.66400
H         -6.95400        7.44200       -0.78200
H         -8.87200        7.13500        0.50700
H         -7.80900       10.58900        0.97300
H         -9.27300       10.92700        1.88900
H        -10.59900        7.67600        1.63600
H        -10.80200        9.33100        2.24000
N         -4.56100        5.91900       -1.92600
C         -5.36400        4.91900       -2.64100
C         -4.81000        3.52500       -2.46300
O         -5.61000        2.61200       -2.59700
C         -5.62800        5.15200       -4.16000
C         -4.45100        4.69900       -5.07200
C         -4.66600        5.12600       -6.50300
O         -3.96400        6.01700       -6.95800
N         -5.62000        4.51500       -7.23500
H         -3.94300        6.51000       -2.43500
H         -6.36400        4.94700       -2.17900
H         -6.51200        4.56400       -4.47000
H         -5.88300        6.21000       -4.32500
H         -3.51200        5.12500       -4.70500
H         -4.34300        3.60400       -5.05300
H         -6.17800        3.78200       -6.84600
H         -5.76800        4.79000       -8.18500
N         -3.49700        3.31900       -2.18100
C         -3.07500        1.96900       -1.74500
C         -3.26800        1.73600       -0.25200
O         -3.25400        0.59300        0.18300
C         -1.59600        1.63700       -2.03500
S         -1.21700        1.52000       -3.80100
H         -2.84300        4.10200       -2.17000
H         -3.67700        1.20600       -2.26300
H         -0.96600        2.40900       -1.56200
H         -1.33800        0.64900       -1.62000
N         -3.42800        2.79800        0.57100
C         -3.64500        2.62500        2.00000
C         -4.99100        1.96800        2.18000
O         -5.06400        1.07900        3.01200
C         -3.57200        3.99700        2.72800
C         -4.00400        3.99800        4.21700
C         -3.20500        2.98000        5.07700
C         -3.85000        5.42700        4.80800
H         -3.36900        3.72900        0.21700
H         -2.84100        1.98200        2.39800
H         -2.55600        4.41000        2.62300
H         -4.27900        4.66700        2.22500
H         -5.07700        3.75500        4.23500
H         -2.13100        3.21200        5.03000
H         -3.52900        3.03600        6.12700
H         -3.35800        1.94600        4.73900
H         -4.43100        6.15700        4.22200
H         -4.21300        5.45600        5.84700
H         -2.79300        5.73400        4.79800
N         -6.07000        2.34200        1.45100
C         -7.35500        1.67300        1.69600
C         -7.27200        0.15600        1.55100
O         -7.54200       -0.50100        2.54400
C         -8.58000        2.23900        0.91700
C         -9.05400        3.62500        1.44000
C         -7.97200        4.66700        1.33200
O         -7.89100        5.32200        0.26000
F         -7.19600        4.83900        2.31300
H         -6.00400        3.09700        0.79200
H         -7.59300        1.86000        2.76400
H         -8.35300        2.32300       -0.15800
H         -9.42800        1.54200        1.03400
H         -9.91600        3.96200        0.83900
H         -9.38500        3.56000        2.49000
N         -6.92900       -0.49900        0.41300
C         -6.95100       -1.95900        0.38100
C         -5.92200       -2.55000        1.32000
O         -6.15700       -3.63900        1.82000
C         -6.65400       -2.22500       -1.11700
C         -5.86100       -0.97900       -1.57200
C         -6.54700        0.18300       -0.81100
H         -7.95600       -2.33100        0.64300
H         -6.12000       -3.17300       -1.28700
H         -7.60400       -2.25200       -1.67700
H         -4.81400       -1.08400       -1.24700
H         -5.87200       -0.83600       -2.66500
H         -5.86300        1.02500       -0.65200
H         -7.44500        0.51000       -1.35700
N         -4.78700       -1.87000        1.60000
C         -3.85500       -2.40900        2.59400
C         -4.53300       -2.48800        3.94900
O         -4.25900       -3.41600        4.69500
C         -2.52400       -1.59900        2.60300
S         -1.65800       -1.96000        1.03600
H         -4.57800       -0.99400        1.16600
H         -3.60600       -3.45100        2.31200
H         -2.70300       -0.51800        2.71600
H         -1.87700       -1.91700        3.42500
N         -5.44000       -1.55800        4.32200
C         -6.16700       -1.68500        5.58600
C         -7.12500       -2.84600        5.46200
O         -7.15900       -3.67300        6.36000
C         -6.89500       -0.35500        5.94900
C         -7.68300       -0.41300        7.29100
C         -9.13600       -0.94500        7.13600
C         -9.86300       -1.01100        8.50600
N         -9.16200       -1.93200        9.42500
H         -5.65200       -0.78400        3.72300
H         -5.44300       -1.89500        6.39200
H         -6.10700        0.41400        6.03000
H         -7.57300       -0.04800        5.13900
H         -7.12600       -1.02100        8.02100
H         -7.75700        0.61100        7.69600
H         -9.70000       -0.27700        6.46300
H         -9.15200       -1.95200        6.69900
H         -9.89200       -0.00600        8.95600
H        -10.90200       -1.35500        8.36000
H         -9.08100       -2.94000        9.04000
H         -8.22600       -1.57400        9.53300
H         -9.61100       -1.97000       10.40800
N         -7.90600       -2.92300        4.35700
C         -8.86800       -4.01700        4.19700
C         -8.21400       -5.34100        4.52700
O         -8.77900       -6.11000        5.29000
C         -9.42300       -4.06300        2.74500
C        -10.49900       -5.16200        2.52900
C        -10.96000       -5.18800        1.04400
C        -11.98400       -6.31700        0.74600
N        -13.26600       -6.13700        1.45800
H         -7.86000       -2.21400        3.65100
H         -9.70800       -3.83400        4.88700
H         -9.86200       -3.08300        2.49600
H         -8.59200       -4.25400        2.05300
H        -10.08500       -6.15000        2.78900
H        -11.35500       -4.95600        3.19100
H        -11.40500       -4.21500        0.77700
H        -10.07900       -5.34700        0.39900
H        -12.20500       -6.32600       -0.33400
H        -11.55400       -7.29700        1.00800
H        -13.16300       -6.04600        2.53000
H        -13.61600       -5.24700        1.13900
H        -14.03400       -6.85500        1.21000
N         -7.01700       -5.61800        3.96200
C         -6.34700       -6.88400        4.25300
C         -5.98500       -6.95600        5.72100
O         -6.24000       -7.97900        6.33600
C         -5.06300       -7.04500        3.39700
H         -6.56900       -4.96000        3.35300
H         -7.03100       -7.71100        3.99700
H         -4.36500       -6.21700        3.58900
H         -4.56100       -7.99500        3.63700
H         -5.32100       -7.04200        2.32600
N         -5.39300       -5.87500        6.28100
C         -4.99000       -5.85800        7.69000
C         -3.49900       -5.62900        7.78000
O         -2.78200       -6.48700        8.27500
H         -5.22500       -5.05500        5.73200
H         -5.50600       -5.03200        8.20400
H         -5.25200       -6.78700        8.22000
N         -3.02900       -4.45900        7.28500
C         -1.59900       -4.17000        7.22600
C         -1.27900       -3.12300        8.25700
O         -2.09500       -2.23300        8.43700
C         -1.21600       -3.63800        5.82100
C         -1.53000       -4.68700        4.72000
S         -0.19100       -5.90900        4.57900
C         -0.88300       -6.90700        3.22600
H         -3.64900       -3.75900        6.91800
H         -1.01000       -5.06700        7.42700
H         -1.79100       -2.71500        5.66600
H         -0.15600       -3.35500        5.77100
H         -2.46900       -5.21700        4.93300
H         -1.61800       -4.22200        3.73000
H         -1.91300       -7.21000        3.46100
H         -0.87200       -6.32800        2.29100
H         -0.27200       -7.80900        3.10500
N         -0.10700       -3.19600        8.92700
C          0.24300       -2.13100        9.85000
C          0.64800       -0.93700        9.01600
O          0.26500        0.15500        9.40900
C          1.37900       -2.52900       10.82900
C          1.61200       -1.44800       11.92200
C          2.74800       -1.84400       12.90900
N          2.36100       -2.93800       13.79900
C          3.17600       -3.48800       14.66700
N          4.41700       -3.11100       14.85900
N          2.67600       -4.47100       15.36800
H          0.57100       -3.91300        8.74500
H         -0.64600       -1.89800       10.46000
H          1.10600       -3.46400       11.33000
H          2.30300       -2.70600       10.25000
H          1.87200       -0.50400       11.43000
H          0.68500       -1.27100       12.49500
H          3.63800       -2.12900       12.32500
H          2.98300       -0.96800       13.53600
H          1.39600       -3.29200       13.74200
H          4.83300       -2.33400       14.33000
H          5.00600       -3.58700       15.55900
H          1.70400       -4.79600       15.24900
H          3.27400       -4.93800       16.06400
N          1.40100       -1.10900        7.89100
C          1.86600        0.06400        7.13300
C          1.26400        0.11200        5.74600
O          0.98600       -0.95000        5.21000
C          3.40500        0.11000        6.91100
C          4.28900        0.04600        8.16800
C          3.80700        0.30900        9.45300
C          5.63900       -0.29400        8.01500
C          4.60100        0.04100       10.57500
C          6.44600       -0.53700        9.13200
C          5.91600       -0.39500       10.41600
H          1.63600       -2.03300        7.55000
H          1.58500        1.00000        7.64000
H          3.67400       -0.73900        6.26500
H          3.68000        1.03700        6.38100
H          2.82200        0.72900        9.60000
H          6.06700       -0.37500        7.02200
H          4.19500        0.17200       11.57100
H          7.48100       -0.83500        9.00000
H          6.52500       -0.61900       11.28700
N          1.11400        1.33200        5.16400
C          0.62200        1.48700        3.79700
C          1.45800        2.55300        3.12400
O          1.19200        3.71700        3.37800
H          1.34300        2.17600        5.65600
H          0.66300        0.55300        3.22800
H         -0.43000        1.80700        3.82200
N          2.47700        2.18900        2.30600
C          3.37800        3.19200        1.72700
C          3.45500        2.96100        0.23600
O          3.57900        1.79500       -0.09800
C          4.79200        2.97600        2.33900
C          4.86300        3.33100        3.84900
C          4.75600        4.84800        4.19000
C          5.88200        5.72800        3.56800
N          5.47400        6.39300        2.31000
H          2.67300        1.22200        2.10600
H          3.03700        4.22300        1.90100
H          5.04600        1.91000        2.22900
H          5.55900        3.53400        1.78400
H          4.06300        2.78900        4.37800
H          5.82500        2.96400        4.24600
H          3.77400        5.25900        3.91300
H          4.83300        4.91800        5.29000
H          6.11600        6.55000        4.26600
H          6.80400        5.14300        3.42100
H          5.13400        5.76700        1.50100
H          4.68100        6.96000        2.56600
H          6.22300        7.07100        1.92300
N          3.40200        3.99000       -0.65600
C          3.66600        3.76800       -2.08300
C          4.94400        4.49700       -2.41600
O          5.11000        5.59800       -1.91700
C          2.59900        4.23700       -3.11500
S          3.05000        3.47500       -4.72500
H          3.28700        4.93900       -0.35600
H          3.82800        2.69700       -2.24500
H          1.60500        3.90500       -2.79700
H          2.59300        5.33400       -3.18600
N          5.81200        3.90100       -3.26800
C          6.97200        4.60500       -3.79200
C          6.61000        4.83500       -5.23900
O          6.18800        3.86300       -5.84100
C          8.23800        3.72100       -3.71600
C          8.67100        3.41900       -2.25800
S          9.29900        4.94300       -1.47300
C          8.13100        5.16800       -0.09800
H          5.60600        3.01300       -3.68800
H          7.15000        5.55700       -3.27000
H          8.03000        2.76500       -4.22500
H          9.06500        4.22100       -4.24500
H          7.83800        2.98000       -1.68500
H          9.50300        2.69900       -2.26900
H          7.10500        5.22500       -0.48200
H          8.21000        4.32600        0.60500
H          8.37300        6.10500        0.42300
N          6.74500        6.07200       -5.77300
C          6.17600        6.39600       -7.07900
C          6.37500        5.26800       -8.06800
O          7.40100        5.23300       -8.72800
C          6.79200        7.71400       -7.62200
C          6.23000        8.08900       -8.97600
O          5.14800        7.63500       -9.31600
N          6.93400        8.92200       -9.77500
H          7.14800        6.80800       -5.23200
H          5.10000        6.57600       -6.92000
H          6.56300        8.52900       -6.91400
H          7.88600        7.60100       -7.68000
H          7.82400        9.29300       -9.50400
H          6.56100        9.17500      -10.67000
N          5.39900        4.33300       -8.16700
C          5.55300        3.18500       -9.05100
C          4.80200        2.00200       -8.48800
O          3.80000        1.62400       -9.07500
H          4.55200        4.40200       -7.63900
H          5.16800        3.45300      -10.04800
H          6.61000        2.89100       -9.15900
N          5.26500        1.42400       -7.35200
C          4.69100        0.17600       -6.83500
C          4.26200        0.35600       -5.40100
O          4.81100        1.24900       -4.77600
C          5.78600       -0.92000       -6.89900
C          6.27700       -1.12600       -8.35800
C          7.50200       -2.07600       -8.40500
C          7.97400       -2.35000       -9.86000
N          8.42400       -1.13200      -10.56400
H          6.04900        1.81600       -6.86300
H          3.82300       -0.15700       -7.42400
H          6.63200       -0.60500       -6.26700
H          5.39600       -1.87000       -6.49600
H          5.45500       -1.53500       -8.96700
H          6.57000       -0.15700       -8.78800
H          8.33500       -1.63000       -7.83700
H          7.23300       -3.02800       -7.92000
H          8.82400       -3.05200       -9.83500
H          7.16300       -2.82000      -10.43800
H          7.69300       -0.33600      -10.59000
H          9.18400       -0.78100      -10.00300
H          8.84600       -1.29200      -11.54700
N          3.31500       -0.46700       -4.87400
C          2.85300       -0.29300       -3.49400
C          3.49800       -1.31300       -2.58000
O          3.64600       -2.45600       -2.98100
C          1.30400       -0.21500       -3.36500
S          0.81200        1.49400       -3.77700
H          2.93100       -1.22900       -5.40200
H          3.20700        0.67800       -3.13500
H          0.79900       -0.92100       -4.03800
H          0.98600       -0.40800       -2.32900
N          3.90500       -0.88200       -1.35900
C          4.64400       -1.71900       -0.42100
C          3.88800       -1.65200        0.88800
O          3.97600       -0.62000        1.53900
C          6.08600       -1.15200       -0.24600
C          6.94300       -1.43500       -1.45900
N          8.04100       -2.15900       -1.42900
C          6.71500       -1.00700       -2.71700
C          8.52400       -2.27100       -2.62500
N          7.81000       -1.61800       -3.42200
H          3.75000        0.05900       -1.05700
H          4.72200       -2.76200       -0.76100
H          6.06500       -0.06500       -0.06900
H          6.54900       -1.62600        0.63500
H          8.45500       -2.58700       -0.58800
H          5.92400       -0.37600       -3.11200
H          9.40700       -2.85000       -2.89200
N          3.14400       -2.71600        1.28500
C          2.43900       -2.69400        2.57000
C          3.04000       -3.74000        3.48100
O          3.64000       -4.66200        2.95200
C          0.91900       -2.89800        2.34300
S          0.27900       -1.46700        1.40400
H          3.05800       -3.54900        0.72600
H          2.56700       -1.72900        3.08600
H          0.71800       -3.83400        1.80000
H          0.41000       -2.93300        3.31500
N          2.90700       -3.60400        4.82800
C          3.51000       -4.56800        5.75600
C          2.42800       -5.17200        6.62200
O          1.62300       -4.37700        7.08800
C          4.55400       -3.93300        6.71100
O          3.88100       -3.00500        7.57800
C          5.69100       -3.24800        5.90900
H          2.39800       -2.82800        5.22000
H          4.03900       -5.33900        5.18500
H          4.99200       -4.73700        7.33100
H          4.44600       -2.67600        8.26800
H          6.18000       -3.97200        5.24000
H          5.28900       -2.42400        5.30100
H          6.44900       -2.84600        6.59900
N          2.37600       -6.51200        6.86600
C          1.25300       -7.09500        7.58500
C          1.29900       -6.71000        9.04100
O          2.38800       -6.45500        9.53100
C          1.51800       -8.60600        7.37500
C          3.05600       -8.68800        7.26800
C          3.42100       -7.43500        6.43800
H          0.29200       -6.85100        7.12200
H          1.10000       -9.23400        8.17800
H          1.09000       -8.93000        6.41000
H          3.48700       -8.60400        8.28000
H          3.41100       -9.62500        6.80800
H          4.44300       -7.10600        6.68200
H          3.32400       -7.63900        5.36000
N          0.13800       -6.66900        9.74000
C          0.15400       -6.40600       11.17700
C          0.16600       -7.74300       11.87000
O          1.10100       -8.07900       12.57900
C         -1.08600       -5.58600       11.62500
C         -1.08500       -5.37400       13.16600
C         -2.03200       -4.22300       13.59800
C         -1.95900       -3.98200       15.13000
N         -2.32300       -5.20500       15.87400
O         -0.86100       -8.57300       11.70600
H         -0.74400       -6.88100        9.30700
H          1.05500       -5.83200       11.46400
H         -1.06100       -4.61800       11.10200
H         -2.01600       -6.10000       11.33000
H         -1.38400       -6.31100       13.66400
H         -0.06700       -5.13100       13.50400
H         -1.74100       -3.29200       13.08300
H         -3.06600       -4.46900       13.30800
H         -0.93100       -3.69200       15.40500
H         -2.63600       -3.15800       15.41100
H         -3.31600       -5.56400       15.63700
H         -1.66800       -5.91900       15.59400
H         -2.23900       -5.08900       16.94600
*
%MaxCore 64000
%scf
  Convergence VeryTight
  MaxIter 400
end
%pal nprocs 4 
end
