!M062X D3Zero RIJCOSX def2-SVPD def2/J TightSCF 
*xyz 0 1 
C          3.51177       -2.80621       -6.49228
S          3.00462       -1.09621       -6.38926
F          4.12886       -0.32965       -6.95372
O          1.78128       -1.00078       -7.13640
O          2.85155       -0.78368       -4.95679
H          3.63615       -3.08010       -7.51913
H          2.76397       -3.42755       -6.04548
H          4.43892       -2.93511       -5.97393
*

%MaxCore 64000

%pal nprocs 8
end  

%scf
  MaxIter 150
end

